Version 4
SHEET 1 1244 680
WIRE -352 -64 -352 -112
WIRE -240 -64 -240 -112
WIRE -144 -64 -144 -112
WIRE 208 16 160 16
WIRE 400 16 288 16
WIRE -352 48 -352 16
WIRE -240 48 -240 16
WIRE -144 48 -144 16
WIRE 32 144 -96 144
WIRE 160 144 160 16
WIRE 160 144 112 144
WIRE 304 144 288 144
WIRE 160 160 160 144
WIRE 208 160 160 160
WIRE 304 176 288 176
WIRE 208 192 -96 192
WIRE 400 208 400 16
WIRE 400 208 288 208
WIRE 512 208 400 208
FLAG -240 48 0
FLAG -240 -112 Vcc
FLAG -352 48 0
FLAG -352 -112 Vseuil
FLAG 304 176 0
FLAG -96 144 Vin
FLAG -96 192 Vseuil
FLAG 304 144 Vcc
FLAG 512 208 Vout
FLAG -144 48 0
FLAG -144 -112 Vin
SYMBOL AutoGenerated\\LM741_NS 240 176 R0
SYMATTR InstName U1
SYMBOL res 304 0 R90
WINDOW 0 0 56 VBottom 2
WINDOW 3 32 56 VTop 2
SYMATTR InstName R2
SYMATTR Value 100k
SYMBOL res 128 128 R90
WINDOW 0 0 56 VBottom 2
WINDOW 3 32 56 VTop 2
SYMATTR InstName R1
SYMATTR Value 4.7k
SYMBOL voltage -240 -80 R0
SYMATTR InstName V1
SYMATTR Value 5
SYMBOL voltage -352 -80 R0
SYMATTR InstName V2
SYMATTR Value 2.5
SYMBOL voltage -144 -80 R0
WINDOW 123 0 0 Left 2
WINDOW 39 0 0 Left 2
SYMATTR InstName V3
SYMATTR Value SINE(2.5 1 10)
TEXT -384 272 Left 2 !.tran 1
TEXT 768 16 Left 2 ;Vb = Vseuil(1 + R1/R2) - Vout(R1/R2)
